LAMMPS (15 Sep 2022)
# simple test of uo2 with ACE product

units		metal
atom_style	atomic

neighbor	0.3 bin
neigh_modify	 every 2 delay 10 check yes

read_data       UO2_ex.data
Reading data file ...
  orthogonal box = (0 0 0) to (10.942 10.942 10.942)
  reading atoms ...
  96 atoms

mass  1 15.999
mass  2 238.0 #289

#if you want ACE to control dynamics uncomment below
#pair_style hybrid/overlay pace product zbl 4.0 4.8
#pair_coeff  * * pace UO2_pot.yace O U
#pair_coeff  1 1 zbl 8 8
#pair_coeff  1 2 zbl 8 92
#pair_coeff  2 2 zbl 92 92

pair_style  pace product
ACE version: 2021.10.25
Product evaluator is used
pair_coeff  * * UO2_pot.yace O U
Loading UO2_pot.yace
Total number of basis functions
	O: 32 (r=1) 85 (r>1)
	U: 32 (r=1) 85 (r>1)
Mapping LAMMPS atom type #1(O) -> ACE species type #0
Mapping LAMMPS atom type #2(U) -> ACE species type #1

minimize 1.0e-4 1.0e-6 100 1000
Step          Temp          E_pair         E_mol          TotEng         Press
0   0              227.11787      0              227.11787      2431122
Loop time of 2.66009 on 4 procs for 81 steps with 96 atoms

Minimization stats:
  Stopping criterion = energy tolerance
  Energy initial, next-to-last, final =
  Force two-norm initial, final = 1692.1022 11.40767
  Force max component initial, final = 799.61261 2.7142169
  Final line search alpha, max atom move = 0.012438904 0.033761884
  Iterations, force evaluations = 81 157

velocity        all create 200 8728 loop geom
timestep        0.00025
fix            1 all nve

thermo 		10

thermo_style    custom step temp pe ke etotal

dump            0 all cfg 100 ats.*.cfg mass type xs ys zs
dump_modify     0 element O U
run		1000
Step          Temp          PotEng         KinEng         TotEng
81   200           -673.84438      2.4559428     -671.38844
Averages over the last 51 of 102 rows, steps 590 to 1081:
Temp PotEng KinEng TotEng
114.549 -672.784 1.40663 -671.377
Loop time of 14.8773 on 4 procs for 1000 steps with 96 atoms
